data/cap_circuit.dss
clear
set defaultbasefrequency=60
new object=circuit.lehigh basekv=115 pu=1.0001 phases=3 bus1=sourcebus angle=30 mvasc3=20000 mvasc1=21000
edit object=vsource.source basekv=115 bus1=sourcebus.1.2.3 pu=1.00 r1=0 x1=0.0001 r0=0 x0=0.0001
new object=vsource.secondsource basekv=4.16 bus1=680.1.2.3 pu=1.00 r1=0 x1=0.0001 r0=0 x0=0.0001
new object=transformer.sub phases=3 windings=2 xhl=0.008 buses=[sourcebus.1.2.3,650.1.2.3] conns=[delta,wye] kvs=[115,4.16] kvas=[5000,5000] %rs=[0.0005,0.0005]
new object=loadshape.diesel_675_existing_shape npts=24 interval=1 useactual=no mult=[0.0,0.0,0.0,0.0,0.0,0.0,0.0,0.0,0.0,0.0,0.0,0.0,0.0,0.0,0.0,0.0,0.0,0.0,0.0,0.0,0.0,0.0,0.0,0.0]
new object=loadshape.solar_634_existing_shape npts=24 interval=1 useactual=no mult=[0.15490424745472425,0.0,0.0,0.0,0.0,0.0,0.0,0.0,0.01177800256437076,0.03571102002284214,0.050409745295806864,0.15490424745472425,0.03552238175835221,0.08301140434556513,0.12418712165511528,0.13370384283885686,0.06680489395293095,0.0044285078282634074,0.0,0.0,0.0,0.0,0.0,0.0]
new object=loadshape.670c_residential2_shape npts=24 interval=1 useactual=yes mult=[16.6862914,17.35795841,17.0129319,16.89293897,18.95710465,23.34621152,28.40798431,25.83088316,22.85587618,20.22639518,17.34313098,17.4373398,17.29393513,16.86525069,16.71803771,18.01567204,25.21350014,35.28494681,40.71475204,39.76648321,39.3628337,34.34391999,28.39072205,23.49395516,20.58946433,20.57710294,20.83519388,21.0642855,23.42755949,28.20049391,33.49195143,30.76351682,28.79249861,24.71292607,21.25785371,21.93623209,21.46784135,20.16552467,19.56078399,20.86846976,28.06339481,35.55180935,40.98245739,40.41658021,40.4993641,35.6901883,29.71985297,24.96464902,22.17721686,22.30707394,22.65269356,22.98189374,25.42876322,30.30115069,36.01776528,32.54761574,29.26675789,25.24843045,22.20424961,23.51162322,24.56702415,25.35053682,26.06490684,28.16188016,33.6513697,36.57131229,40.8948351,40.38430323,40.33623114,35.56423316,29.44849538,24.00726522,20.70324536,20.3868748,19.97932335,19.9417085,22.24748328,26.4642798,31.21814147,28.45153014,27.14356341,23.81095003,20.43060792,20.22730043,19.66382684,19.65274528,19.56434258,20.9485691,28.15938292,35.24449134,40.32730346,39.39173939,38.96692569,33.69347961,26.99940957,21.3095156,17.73357626,17.16532667,16.88123309,16.7391707,18.74343357,23.12414342,28.25740003,25.92325024,27.33288632,33.39605695,39.21025164,35.61161853,36.95567051,39.45548174,40.71147439,41.02019712,49.70385866,51.38803632,50.72345526,48.05729586,47.01428755,40.93248114,32.73606459,25.57719361,19.93474741,19.17399095,18.70981431,17.87741795,19.9636531,24.78337978,30.7616751,30.37756659,40.81726422,42.9448913,48.85679096,53.05214232,55.3701224,56.62627115,55.3521422,53.92671102,54.35495843,54.44226861,58.09065945,55.6871485,55.43720482,41.47990991,27.84532233,21.40372441,17.76978641,17.16719961,16.91741202,16.8237651,18.86879559,23.27953491,28.42374822,25.88747712,22.7399725,20.25352157,20.81097055,23.85465193,26.08572767,24.72850268,25.27118665,30.27155828,35.94056899,39.95518178,43.9505345,42.57330029,41.88284145,36.21429898,28.43286317,21.83993183,17.870332,17.17590877,16.88195106,16.74038811,18.74371451,23.15526542,28.31720921,26.21795714,28.94186547,36.91406006,41.26848634,42.96830304,44.16891914,47.48411422,51.83460734,53.04246546,56.03376699,56.08705211,53.42545021,46.98119898,42.87805862,35.90882266,27.83180594,21.57519195,17.9283931,17.70482665,17.8046855,18.05344297,20.31638987,24.90149978,30.11960052,27.5417814,26.41221209,25.98805392,28.80894925,35.96497963,42.05543273,46.28031411,50.53597411,47.2175014,49.47667121,49.05978627,48.84545967,44.22822886,42.29822801,36.49648839,29.07496898,22.8754796,18.85549773,18.20611868,17.57699859,17.30870013,19.38897309,23.8897071,29.33256047,28.15317102,31.46874066,34.77556992,41.81532201,45.91537201,43.00960133,42.7816647,43.06610165,41.57199606,46.3223928,50.78345173,52.51513958,49.40459428,48.16061964,40.60855641,30.90960603,23.542714,18.78629265,17.55077744,16.97116537,16.7391707,18.77096576,23.20439885,28.35226438,25.99585783,25.60553742,23.02709399,20.57519878,23.44563335,32.21841557,43.50390106,50.55554632,52.34104995,54.3325456,52.20273342,54.13548126,47.51202099,41.57177756,35.15271735,27.72361253,21.58571162,17.7593916,17.25241832,17.10557993,17.11837834,19.21959701,23.67865813,28.93880635,27.001064,27.19176038,25.12796928,22.98076997,23.0562494,21.55068767,21.14834922,20.85033347,21.9699762,29.12244796,35.74440988,42.25908362,41.55307939,41.49592353,36.75049009,30.41193501,25.30842692,22.59697363,22.79703469,23.15229994,23.4924256,25.94544457,30.70648584,35.91341137,33.3560073,31.16978844,25.8471465,21.59763599,21.11032857,20.06619649,19.71096246,19.49676071,20.7284676,27.86324011,34.19115063,40.32730346,39.39173939,38.96692569,33.69831804,27.01813897,21.32637204,17.73725971,17.16532667,16.88123309,16.74048175,18.7622566,23.16940612,28.27076033,25.71142088,22.56569556,24.26872745,29.02961266,34.53908021,38.37058202,38.7051825,40.35480446,41.13753672,41.73946799,45.72174138,49.19844618,47.32063788,45.44910395,38.48860838,30.94887532,24.74526548,19.60713923,18.32654864,17.86480683,17.41242971,19.04394657,23.36952961,28.56868245,26.99372834,32.21463848,42.84987089,46.95145046,49.24370887,50.95988255,52.37651092,54.20409322,56.52350925,61.00385944,62.6852589,59.19588056,53.21321505,50.12642484,43.67477549,35.07911085,26.10386396,20.0518373,18.42481548,17.45631891,17.08912929,18.92070721,23.29701567,28.4971674,26.33604593,27.85727792,34.92368814,42.21282201,49.00472189,53.26025702,55.62246968,54.3919802,54.86892403,59.03796061,60.81075948,61.05961058,57.26559875,53.51354075,45.11812447,32.81897336,23.69479662,18.76662679,17.77637291,17.34213208,17.00537771,18.88253048,23.27173099,28.49467016,26.35580543,28.54364751,32.02150728,37.05768323,44.90829289,48.46915508,50.09105753,47.7931803,42.80566954,47.03148736,49.19307708,51.73287554,48.81293298,46.66151955,40.01318045,31.96232243,25.11229903,20.4501177,19.09835544,17.49977108,16.84386797,18.77764592,23.2268429,28.38962952,26.16573337,27.94418227,33.77233033,38.568895,41.80330397,42.77102017,47.7283454,45.03434166,44.37871948,50.01514109,52.77881813,53.0992155,48.99704284,45.76759714,38.74513855,31.11313204,24.58853173,19.59733751,18.16235435,17.74528213,17.45697443,19.30515908,23.8043011,29.49141689,26.90704249,27.08756256,31.83068606,38.06145349,48.63228804,53.84252241,55.61354201,51.79827232,48.88647703,52.64352954,55.22356497,56.96692748,53.85856728,52.1785725,45.0519473,35.88104074,27.90485056,21.36895018,19.37870314,18.35501731,17.60977502,19.39768226,23.66436136,28.88845551,27.16597627,32.03873831,42.92784757,50.74377664,51.73490456,53.48785026,54.98557688,50.8332719,49.8128637,56.03972918,56.36118789,58.46999196,55.33004153,53.13236652,46.87419174,38.44543713,30.55165625,24.44568894,22.39001391,21.36573498,20.65798267,22.48210006,27.22316331,33.32085847,32.85059479,37.55451144,42.43860477,40.04414636,40.88019495,41.51596397,31.22269894,26.16367313,28.64650304,29.7965498,38.54114431,46.9922181,47.96698901,48.54706933,43.78084625,36.18186592,28.28162337,23.43573799,22.22350967,20.77491647,20.13808612,22.20250153,27.84794444,34.99030235,34.13449423,37.86073691,44.22232912,46.11540187,48.34529141,49.85665926,52.24506184,53.66153412,53.93507682,56.95684481,57.12050844,59.90023035,57.61899105,55.33350645,48.08482807,39.36286491,30.97428485,24.9141109,23.24076507,22.21211595,21.46752919,22.60022006,26.69540042,33.23467208,33.80089264,42.96955168,52.91376337,57.2381602,59.42082048,58.9239923,59.16116876,58.72265138,60.74433257,65.55650506,63.6310305,61.65504899,56.80329506,54.28157046,47.51785833,38.79879822,31.0001002,24.63298281,20.89522157,18.69436257,17.91459578,19.89703891,24.19468394,29.1350903,28.39805774,38.92821828,49.5550849,53.06166309,55.18017522,55.31118726,58.86580634,56.79942432,51.94055323,53.99092159,56.48330349,59.82890259,55.93403303,53.85020148,47.03385976,38.41284801,30.78424401,24.59368231,23.13634874,23.06729974,22.62082238,24.55185335,27.4621815,31.55386571,30.0154339,40.50601301,50.22503506,51.95278977,56.01369535,58.2839155,59.72963685,59.34921179,58.9609204,63.08363295,60.40548675,59.1672558,53.73935472,50.37902184,42.64163132,33.89944044,26.8328429,21.92299665,20.69000992,19.569181,18.46833009,19.83398331,24.04544195,29.43913069,29.01110176,39.28139208,47.07319147,49.20762357,54.03293787,56.27035037,57.80191473,54.47769836,52.94872488,59.65181625,59.23131031,59.83736204,56.38032309,53.98208757,46.72086051,37.99942802,30.33798516,24.6810549,23.01891549,21.34350944,20.18662644,22.47741771,27.82606226,34.13976969,33.50293931,35.09652917,37.59128347,40.13048883,45.19191823,51.82074757,56.26869594,55.45584056,51.35469801,52.25548787,53.44186964,56.86881669,53.11054678,49.89340007,41.23290053,31.76447768,24.26669844,19.18157635,18.36934528,18.21226817,17.89483628,19.83563774,24.45976719,30.99597974,28.10697186,23.57215035,23.17052988,27.08194374,37.61794163,41.89361085,46.44825428,48.74260411,47.53409047,49.25937912,49.66908445,49.28354001,43.34648057,40.82469353,34.71732154,27.35017976,21.41914494,17.89115283,17.57684251,17.53176712,17.62363476,19.63095677,23.98269851,29.23295135,26.71057121,23.30141707,21.64236802,21.55209237,24.63407536,27.20496461,28.86697913,30.33629952,32.58582369,36.84697763,40.49664833,42.70662231,40.41526915,39.4749915,33.97885305,27.28983994,21.8759859,18.59775016,18.26065241,18.17390414,18.16959638,20.31495396,24.83526018,30.12175438,27.55879392,26.49068822,25.94057493,27.19666123,30.72786856,31.93419713,36.52133604,38.39508629,37.93503013,42.03017928,42.39786836,43.8649412,40.90120309,39.68928692,33.94841777,27.11731108,21.62669776,18.40774053,18.27710306,18.41673064,18.76107041,21.30704956,26.05825791,31.12049892,26.9292056,26.63334371,25.73957739,26.42039059,30.05907337,31.97071944,33.7702701,36.10576216,37.88133922,41.02896872,40.27292582,42.55984632,40.05822461,39.32078624,33.87677787,27.21361133,21.67448891,18.23836445,17.82247842,17.69930148,17.64283238,19.63657558,23.92036087,29.08214857,25.65332857,26.42029695,29.60482332,35.60621823,39.37135558,40.2178302,41.68793097,41.88955281,43.09563166,47.91916665,46.25540401,46.49345453,42.92588097,41.12295902,35.07152544,27.65521904,21.65195121,17.81582948,17.20905979,16.99772988,16.87957867,18.92679426,23.47900287,28.75941004,25.29953046,26.5814009,28.73718448,33.16290731,36.55810806,37.82908424,38.91467071,36.7367552,35.52671196,40.05859919,43.25695411,50.08612544,47.03392218,42.62280829,34.60010678,27.62959101,22.0116803,18.11568696,17.48410083,17.26646536,17.20665619,19.43679546,24.00370664,29.45389569,26.24171225,26.61898452,28.73219,33.24041577,42.26376596,49.03272231,51.37620558,51.9039685,48.61227882,50.53556828,52.13227971,54.9181511,50.84831784,46.21732093,36.63714608,28.44126017,21.91397534,18.00839879,17.31138468,16.92955491,16.7391707,18.74343357,23.12414342,28.25905446,24.69588233,22.59906507,19.88099407,17.19772852,17.31160318,18.85687122,21.18184361,20.94950557,22.14415949,28.25777462,34.97319617,42.64191228,40.66352716,39.68903718,33.92534943,27.00646431,21.37603613,17.90076725,17.43059722,17.195918,17.17909277,19.23542333,23.48187471,28.58041953,24.82277392,22.68568849,21.86531015,22.0577858,24.5593451,24.81381503,22.20549823,21.38384005,22.99497309,29.31180207,36.18536205,43.12896995,41.13285438,39.9702277,34.33945615,27.24813583,21.3426354,17.73357626,17.16532667,16.88123309,16.73923313,18.74596203,23.12801417,28.25786828,25.00663407,26.5393222,28.14798921,30.77572213,34.40235569,35.30195933,35.93189103,35.52168624,34.84390098,39.21184362,40.79085578,47.04559684,44.67885791,43.75178448,37.92822513,30.64998552,23.3070671,18.35248884,18.27226463,17.80412362,17.29995974,19.78032362,24.66276253,30.52908734,28.00467818,33.06435954,38.9132972,43.58506173,50.08109972,54.5859542,57.22270845,55.80857735,54.02338586,58.6836006,59.54580791,61.86503663,57.18378254,54.92682904,44.40194393,32.36537882,25.98140499,21.18827404,19.45327731,18.30781925,18.01913697,20.0678197,24.12273189,29.08011955,26.38190171,30.15874494,29.43563453,30.82635392,35.00447425,36.20786854,39.11226572,42.19746392,44.10355359,50.30831841,49.25319843,48.26887551,42.56599581,40.60415502,34.44733743,27.28487664,21.52883671,18.1883882,17.80471672,17.7270834,17.73117266,19.80610774,24.32635154,29.57935137,25.97784641,26.50333056,25.43744117,24.67172142,26.71903067,28.37995267,30.09506501,31.67651198,33.17395764,39.60431793,39.92009537,42.91726546,40.16991418,39.35749582,33.97966464,27.41975946,22.0476095,18.95176677,18.78117328,18.91977074,19.23848247,21.53276989,26.09690287,31.25566266,27.59931182,27.13853769,23.89629361,22.60477754,23.67210284,24.21781474,23.61788128,24.02446504,25.59476802,30.76492151,32.90025887,40.58164853,39.79145573,39.72427964,34.73527053,28.15922684,22.57805695,19.1723053,18.76490993,18.73915702,18.82840255,21.02220681,25.50396171,30.55980351,26.83958547,24.46295119,21.00488213,17.67423532,17.61448858,17.28001295,16.70339757,16.690287,17.88837464,25.02770463,32.03080955,40.55527132,39.80007124,39.69921349,34.73005751,28.36147301,23.22971474,20.15993707,19.77351861,19.62184179,19.74011787,22.37574836,27.29505295,32.46979515,28.42846178,25.01106669,20.8144667,19.14339961,22.83586695,25.41262474,26.83818078,28.87056895,31.4815703,36.51384429,37.99209233,42.0746928,39.74079273,39.02055415,33.71782782,27.16322928,21.74906308,18.47909949,18.20580652,18.23433762,18.2781956,20.50112406,25.23304114,30.4244525,26.35624244,26.27008726,26.25835018,28.72728912,32.88137341,34.19152522,35.78542724,36.9093465,36.91259292,42.94723248,42.67596853,44.52864822,41.13635054,39.92942885,34.30808443,27.30101514,21.38362154,17.73391963,17.16801122,16.90108624,16.81895788,18.95270325,23.55226599,28.72794467,25.13414997,28.9782317,32.38673033,33.80079901,35.93576178,37.17942425,40.46352854,41.6798461,40.75370917,46.62490361,46.24750646,48.39080382,44.40625169,42.69270012,36.60493153,28.93137702,22.58520533,18.28805975,17.4806359,17.15265312,16.92431068,18.77830144,23.14764881,28.30981112,25.45270563,29.96249217,37.76655931,42.95353805,44.52805513,39.75187427,39.61390112,43.67352688,47.579478,54.43640005,51.98478579,53.03491129,48.38715158,45.48796741,38.43650945,30.01886764,22.85365987,18.28802853,17.45457083,17.03915304,16.79582709,18.74952062,23.15386072,28.33022614,25.13068504,29.88554562,33.42646099,38.38753212,44.52605735,45.23827347,42.00895264,41.70506836,44.31837966,50.61238998,48.13783223,50.84906702,47.07728072,44.35911606,38.73468128,31.81308042,24.89485084,20.13842949,19.22939872,18.64335621,18.22893732,20.18222504,24.90262354,29.80351091,29.03117343,32.12298933,36.90057491,41.85309293,45.66324326,44.37644075,42.61207012,40.82631675,41.09670666,50.79153657,52.66007381,53.31472831,49.53001875,47.73377692,41.62443834,33.49469839,26.18074809,21.25410783,20.19480494,20.17629407,19.78769051,21.36208274,26.03362876,30.93954184,32.2687664,38.67468483,43.99960548,46.95678834,47.83588331,48.19832816,52.70692851,53.01284181,48.18484298,51.44900048,56.73512009,59.6766639,56.32401007,54.1497468,47.03632579,38.36683615,31.32396249,26.17790747,24.73839804,24.01269674,23.61226246,25.5653941,30.56598423,35.66605862,37.88343066,43.00076731,43.77510257,48.5404516,53.1215659,52.44768257,52.49044802,57.47758419,59.92195642,60.20202318,61.30465338,65.20866915,61.53368256,58.64124097,51.18519706,42.30390927,34.67421274,28.4634545,26.90947731,25.73349034,25.02932784,26.63958686,30.83574981,36.05750279,38.0488736,43.97135534,48.68363777,51.16977653,52.66672275,53.10602052,54.40103274,55.22531304,56.34230243,57.06254098,57.958867,62.79457608,61.51567115,59.0866258,51.71452075,43.06035799,35.40122507,29.86154078,28.00524006,26.03553292,24.39003144,25.02448942,29.06060979,35.55493092,36.07492111,38.62130606,38.16396567,51.98603442,55.52925977,55.43036861,57.05242712,57.96907452,58.42394888,64.04819636,62.80234879,63.78679655,59.99668668,57.52256593,51.16534392,42.78946862,34.19783078,28.58238611,27.67273102,26.07177428,24.47306506,25.87080796,30.57937572,35.84170902,37.23442622,46.44266668,50.98213929,54.18767379,58.9100389,60.21466553,63.16320163,62.79214127,64.49507951,68.76909428,65.4642004,64.76081829,59.81120331,57.1441699,49.65553685,40.25778621,32.71989488,28.24578782,27.35501819,26.45778694,25.85310869,27.65518783,32.52070786,37.75513437,39.78081117,50.26208804,56.82605127,60.24794139,63.73744461,64.56035142,62.56423585,55.66804451,56.62411726,59.94745961,58.7171262,62.6309749,60.28674246,58.20128769,50.277571,38.78359622,30.29937141,24.54292567,21.87795248,21.83475003,22.2207939,24.45664564,29.997641,35.41848734,37.2573385,47.33268713,50.83848491,54.95935575,61.17261121,63.03112825,62.06575323,62.20700401,63.59666205,69.09395555,68.02222882,65.62839472,59.50672594,57.57900383,50.59865512,40.89592763,32.99524809,27.62231777,26.78689348,25.69197354,25.28919808,28.09052122,33.31836123,39.68235702,40.61039813,42.87487462,44.21848959,46.80233331,56.36718129,62.04330917,63.88440789,49.39167101,36.44866601,45.07158193,46.97074174,50.87091797,47.57894733,43.29556786,35.61701884,27.61644921,21.38099942,17.96504026,17.67773147,17.60178381,17.62263586,19.80866743,24.51558077,28.90290834,25.90196117,23.37783297,21.389334,20.27343715,22.4209174,25.26918885,27.94268392,30.90826376,33.35969073,39.91428927,43.45898175,44.01296579,40.82868914,39.67180615,34.06213637,27.15839086,21.40494183,18.0469189,17.74425201,17.70807308,17.73894535,19.83332778,24.2670106,28.3594752,25.54744511,26.20871731,28.39069083,31.72648823,35.98545707,39.11963262,42.97685613,42.97092516,41.96147366,42.69188852,43.40716377,50.06536705,49.37915354,48.48332698,42.41250849,33.98269256,27.60752153,22.40112667,20.38300407,19.54461429,18.59297416,19.97648273,24.58631542,28.78778506,33.54177159,45.5673488,51.18522827,54.36688281,57.05448735,57.35506279,58.57818537,58.40162969,60.53937065,65.75488047,64.2901176,62.99173409,54.94446589,49.38689503,40.35187018,30.61037288,23.13575565,18.36606764,17.40028682,16.921751,16.86653053,19.07725366,23.67478739,26.90551293,25.43662957,28.19418835,29.82576765,30.92181136,35.56029999,38.41943451,40.76351087,44.00934479,46.21663421,52.7085205,52.29282177,51.25212341,45.86814275,42.90381152,35.63172139,27.60421269,21.62048585,17.85853248,17.32505713,17.25485314,17.22613475,19.35835054,23.78460403,26.81005548,25.30745923,30.50414603,36.25153922,37.38204501,39.60266349,40.57231505,43.42629897,45.01639267,41.19650307,46.86863535,46.26230267,48.92249988,46.11796153,44.16804512,37.60136612,29.815685,23.22322188,18.83043157,17.91109963,17.38617736,17.1374511,19.21653787,23.91402409,27.50151322,29.02636622,36.67850681,41.08665522,42.93477744,48.21409205,49.6558178,52.67383992,54.52898567,53.87929446,56.06232933,55.58104653,59.229094,55.98862917,54.00315813,47.6309526,39.05907427,31.37031773,26.08035858,24.68461349,23.08840152,21.80503274,23.48381008,28.28902149,32.69436048,36.16332381,42.17542568,45.27916596,51.03102299,58.62132541,58.0747707,59.16116876,59.23408851,59.32467629,61.31517307,62.34213654,63.1617657,60.10481768,57.60241554,50.28999483,41.35548435,33.51683029,27.31078563,25.06772309,24.3217004,24.5822886,27.17708902,31.47339179,35.10892179,36.69982709,38.391278,41.84625672,46.29180147,58.57987102,59.81906968,58.17809448,57.26834573,54.37268894,59.89689027,62.41302727,63.26970941,60.52900707,58.23531273,50.76725081,41.2773516,32.8472235,26.13954345,24.83738284,24.39209168,22.3103828,23.98301066,29.65445619,34.17810249,35.778591,40.74215938,43.37991252,44.09646764,39.46387875,35.04265097,44.66181418,44.74428591,46.12270632,53.11254459,52.71495093,54.75358221,53.07002888,51.63810485,44.97596841,35.92630343,27.71802492,21.49631001,19.98266343,19.04344712,18.24417055,19.91732908,24.21219592,27.74118693,27.79459691,29.74701059,29.84246803,32.48534053,36.10950806,39.45766684,41.98550969,45.99765644,46.76999392,51.29376507,52.16583653,54.84520012,53.42657397,52.04840327,45.08391211,35.95527154,27.59450463,21.78071575,20.45526828,19.32001773,18.65724717,20.53321375,25.18453202,29.09891137,32.24217066,37.71677036,41.53166546,42.81063281,46.46891902,46.24688216,47.3769197,51.09804299,52.41730977,54.80043689,54.25253991,55.50921931,53.20182134,51.52813213,44.2795474,35.05576155,27.53263522,22.3862056,21.39145666,21.02707645,21.31647669,23.85655609,28.83701213,33.15376113,34.80151012,42.37863953,47.12741305,47.47540505,46.38142157,48.52512473,55.37439894,58.79916092,62.24970701,67.19276668,65.2576465,63.68637584,59.74103055,57.59792049,50.14996145,40.466057,32.76843523,27.59693945,26.90157976,25.84914431,24.460173,26.1362658,31.08794102,35.60693616,37.51102803,38.72178923,32.81360426,28.51923687,30.70333305,23.85970887,22.80627452,34.61106348,39.39835712,45.46221451,42.90109575,43.74001619,42.07912543,40.61976282,34.47730445,27.26430554,21.32290711,17.81470572,17.4299729,17.36466977,17.38661437,19.53949493,24.00570443,26.06509413,25.37500989,23.01651189,20.90299427,19.92366586,21.03678452,24.32610181,28.19952623,31.60683866,34.55122309,40.3477185,44.41190171,46.64285259,45.51846508,44.43962121,38.54251779,30.23013512,23.25490577,18.56725247,18.04882305,17.56669743,19.46248593,23.79893201,28.69473122,27.98526205,24.61494016,24.28052697,26.03728099,32.83017977,35.6955574,37.90306532,41.81903667,45.93110469,53.51566343,60.54932846,58.26740244,53.12602974,50.35785762,43.37217105,34.04434346,25.89952635,20.99164669,20.33973918,19.62852194,18.79834189,20.7817527,25.55796478,31.87217163,32.11559124,35.37297493,41.0329331,43.22614427,50.46143114,58.69405786,61.9272182,63.28740868,66.61140655,78.68408815,80.96030171,75.67221552,70.33093784,65.93699254,57.52537534,47.79455378,39.46138148,32.96462555,30.31781986,29.02518003,28.14686545,29.75515785,33.8963813,39.19467502,39.35250134,39.54803612,41.6183513,52.62295841,57.33380494,46.23948404,41.40723988,42.55535127,50.24061168,61.61865155,63.421355,58.73953903,52.93327313,48.28997728,39.41899064,29.14230113,21.60987252,17.76132697,17.4028153,17.41452116,17.53170469,19.71008842,24.18044961,29.42814278,29.36967587,26.54537805,23.77027604,21.06344267,21.8478606,22.05453938,22.51534472,23.28627748,25.50358712,33.80641782,37.41884824,37.74470837,38.22115274,39.10748974,33.92616103,27.50363587,22.29193435,19.35123337,19.50880995,20.02333741,20.5079915,22.83764625,27.60630414,33.03545382,32.77970406,28.8782792,24.98609417,21.31572751,21.34229203,21.48472901,22.25366397,23.67007383,25.59105336,33.16290731,35.99116954,36.60858377,37.91214906,38.98965068,33.7323431,27.15274083,21.59426471,18.20942754,17.7959139,17.68294449,17.68640942,19.76474702,24.40492131,29.72007147,29.40857057,26.29377993,23.49495407,21.54678571,24.67056644,27.89595409,28.62252944,31.25806627,34.27665029,39.17716304,41.07248331,41.62818421,40.41333377,39.90901383,34.27418424,27.26733345,21.37765935,17.73357626,17.16532667,16.88123309,16.7395765,18.74958305,23.12601637,28.25740003,27.81023592,23.06021379,23.39987121,21.9933255,23.03536613,25.56314657,27.44641759,28.71567691,32.35745006,44.66053434,54.61979198,53.81442835,53.76985241,52.38237945,45.38701603,37.1545766,29.87649307,24.43420158,22.98532746,22.0745174,21.53857599,24.68008721,30.83915234,37.57654968,37.74854787,27.17752603,20.77410487,17.57952705,17.60712168,17.0133377,16.6862914,16.70430282,17.97040935,25.05542412,33.12732147,35.61086936,37.78241686,38.99533192,33.79483682,27.27407603,21.76629412,18.40321426,18.04445286,18.07925831,18.18988655,20.42483303,24.97978861,30.38655669,29.37676182,27.13810068,24.04072839,20.85014618,20.79814091,21.41877035,22.00265898,22.33164065,23.82630813,32.15938677,35.61542683,36.30947547,37.77233421,38.99592501,33.70546644,27.17012794,21.74175863,18.50822369,18.33681859,18.43224481,18.63542744,20.7853425,25.24596441,30.64165094,29.48420606,27.11912157,23.83579769,21.13826657,23.09373939,25.69915313,28.05740141,29.92253615,33.87593507,41.99362577,46.34770867,45.36844271,42.10625181,40.25881634,34.02036984,27.04170677,21.30801725,17.74365891,17.31887643,17.21814354,17.2709292,19.54230433,24.04722124,29.26045232,27.97018489,26.03247378,23.20767649,22.89976538,26.94884023,28.46017687,32.56849901,32.86838772,37.3118098,46.11877316,50.43911195,47.26969396,45.40983465,43.89653145,36.57227997,28.6426323,22.26496404,18.2636179,17.48138507,17.08113808,16.94438234,18.99137943,23.41516688,29.02365047,28.32713578,28.8577081,30.20950157,32.02041473,37.77161624,38.51267564,40.36941337,43.47549483,46.56187922,54.90987894,56.47368906,54.55089903,53.08875826,51.34086948,44.3769402,35.97000532,28.58719332,22.87569811,20.85429786,20.05589533,19.45727292,20.93851767,25.32809277,31.4133329,31.09146839,34.55225322,37.46713884,39.06722156,46.62047098,51.21363453,51.80226791,51.44157115,49.72680216,56.32741257,59.89598501,57.455265,55.76475059,54.1036413,46.59125313,37.4418854,29.72584637,23.69851128,21.47196181,20.49837708,19.81188263,21.29259672,25.66022723,31.37927662,31.01445939,31.18792472,34.75662204,38.11770409,43.33536779,46.79515373,48.59386158,50.11634219,56.00045992,63.59126177,67.61308536,64.82864989,59.38457913,57.46859409,50.05531561,41.23873785,33.29922603,27.85749642,26.39922639,24.68330243,23.21950722,24.56917803,28.40049256,33.59746029,33.42121676,34.59570539,37.74030695,42.2602698,47.31714173,48.64414997,52.42926536,58.87148757,62.96214167,63.13404623,63.71531274,62.49487469,59.06240246,57.70701917,50.52170855,41.05281747,31.40911877,24.89703594,22.37918208,20.95565505,20.15781441,21.44723902,25.36015124,30.44795788,29.47874333,32.41947552,39.19804631,47.54023995,57.4861685,56.69635028,60.24934611,62.94378686,66.84877028,76.00519277,76.97084876,70.51436096,65.15017102,62.6339716,55.05209742,46.37942379,36.97074767,29.39230723,26.43303293,24.35890945,22.82128925,24.37005344,27.64444964,32.03311949,30.68660146,34.56352205,39.50342897,44.96850787,51.70571795,55.78263716,55.76034917,57.80338187,60.81378739,66.56901569,69.17917427,67.61923481,61.57189051,59.20855411,52.49385052,43.26903457,33.81843583,27.54237449,25.61596345,23.71649149,22.32162043,23.99827511,28.51683327,33.69763131,33.6194361,38.55116451,41.01101973,44.81561364,47.85885801,49.23462511,50.54927196,55.66788843,60.22836921,64.99596574,66.07009605,64.74168312,60.61528709,58.43815199,51.05365435,42.26254854,33.72513228,27.48397003,25.68204696,24.01797219,22.58298902,24.11945424,28.73674747,34.84998801,34.14292245,38.53078071,41.85065811,46.12648341,52.14985411,55.80626738,55.5173666,58.33926084,58.67195717,66.96305077,67.40924722,64.66773324,59.74536952,57.69955863,50.82615473,42.11864441,33.66270099,27.49224216,25.61630682,23.82115755,22.65284963,24.46582303,28.31365063,33.60648162,32.79125385,37.60033599,40.8385845,44.01730476,47.45957871,48.85039173,48.85604178,49.34060221,52.67009404,62.88254178,63.4638395,58.94500041,55.3210202,54.31840491,47.29966096,38.0411009,30.20122943,24.91916783,23.26617461,21.86824442,20.50174838,21.74996834,26.07168063,31.54512533,30.12940221,32.70328816,40.92954689,48.65850917,57.13055988,61.85882472,65.13069247,67.98118025,71.97097661,81.46933522,87.20077721,84.37026747,77.10226663,72.49951984,62.30595761,51.63810485,43.36486657,37.00655201,34.15678221,32.35011436,31.70563617,33.48686326,38.38946748,44.493437,42.58097933,42.78210171,48.71354237,52.72603248,58.75567753,64.27410397,66.35066228,69.34530389,72.67251698,78.23052484,83.96611853,81.48481819,75.71342015,71.67539564,62.21430847,51.80588894,43.33786506,37.77467537,36.19494527,34.92325113,33.67834003,33.71495597,37.35857084,43.32937439,41.86810766,46.3401545,51.57898242,56.7811944,64.16325723,66.41971127,67.61058813,71.47074585,75.55415792,82.26611453,84.29122944,81.5054205,76.16389312,72.92517638,64.9214228,54.31306705,45.26215344,39.85142096,38.59274375,35.49839937,33.20074068,34.68429539,39.42373544,45.1088222,42.27400469,47.81662326,52.06694538,52.76545785,60.37617527,65.66504188,66.32372316,69.70743655,69.71973553,79.19892776,85.24165217,82.77527291,76.13208442,71.47021521,63.58982585,53.62145324,44.75546111,39.08691861,37.5584134,36.23405846,35.1909253,36.1910121,40.78080434,47.61281632,45.54453015,47.51695308,48.9582418,50.39022825,56.0836184,61.13571432,62.14126388,60.59905496,57.38571654,64.46049259,69.15997659,68.50479143,64.25746604,63.20081649,55.95547818,47.15304108,38.11932731,29.34370446,23.87728328,21.50720427,19.09217474,19.40454969,23.45106487,28.50397242,25.94182356,25.61115623,24.28224383,23.79028528,25.56814108,26.29743218,27.9067235,29.38846769,34.01406427,43.89019467,47.68017967,46.12542207,42.55987756,41.55014511,34.93264703,27.40109248,21.40316253,17.73853955,17.24171136,17.06150344,17.0502346,19.19256426,23.68196699,28.90109783,26.49796146,25.90564462,23.69763724,24.62805073,29.74638626,32.55401496,32.26895369,35.42710285,38.4715022,46.56496958,51.10890603,49.31232086,46.46436155,45.55289595,39.05972981,30.86577926,23.88720985,19.04588195,17.6733925,17.08713148,16.898589,18.86576768,23.28821285,28.69613591,25.29235086,26.72886358,32.23168221,36.93481845,42.61578476,46.75713307,49.11825319,51.62480699,54.21314577,62.6419316,69.03274166,66.7000278,60.82131035,56.57286117,47.89497452,37.82914666,28.05796329,20.30334174,18.0497283,17.25326115,16.90526914,18.81157732,23.16338149,28.33528307,25.27277865,27.06836493,30.87333346,37.39787134,48.21343653,54.87856965,57.8614742,54.83311969,58.31360157,68.25054003,75.40685132,73.08574967,66.08489226,59.89542313,46.83308073,33.01688053,22.97256026,18.03742934,17.17606486,16.93426847,17.04733154,19.30490936,23.84797179,29.06522971,25.6799243,25.98883431,24.14692401,27.04470347,37.16856121,41.56128911,47.0628591,49.66081229,51.52981777,56.08733306,56.34355107,53.86456068,51.54352145,51.33646807,44.24480437,35.81217903,27.84007811,22.26633752,20.82267641,19.99137259,19.46245471,21.42529442,26.23325281,32.19865606,30.08033123,34.09344566,38.52943844,41.92819777,47.13858825,48.76276944,49.39919397,49.16373438,49.26118961,56.10727986,60.27094734,60.90974426,60.48071647,60.28686731,52.95718433,44.15434144,36.49189968,31.24164684,29.82795275,28.01969292,26.58215007,28.4364842,33.39424646,39.54132475,37.15523212,40.16051828,41.85740068,47.13968078,52.30749313,52.85089506,53.80356531,56.01887713,59.30697701,66.46843888,68.66770588,67.46265717,65.50755894,65.12419961,57.80778329,48.37903552,40.82197778,35.12446718,32.27426034,30.53383211,29.98209559,31.80711823,36.5003279,42.81765634,40.68921764,45.32280543,50.00521449,54.91802623,60.84812459,62.78215227,64.5205827,66.55712254,69.11106169,77.44479586,79.17442352,76.58614714,71.42064477,67.5573654,58.78239812,49.26131448,40.30208123,33.86216896,32.39859226,31.61442407,29.98381247,30.98830067,35.72889569,41.89707577,40.80605781,47.89297671,51.710213,56.12241944,61.62433281,63.56525913,63.57069065,65.67874556,69.49526384,77.86748694,80.48170344,78.22312673,72.51153788,68.11250447,59.91343457,50.68680808,41.86286344,34.74113906,32.41363821,30.73679624,29.18300632,30.41290271,34.99223771,41.05840507,39.04212417,41.62887096,47.79889278,52.8851074,57.45732523,61.12513223,62.66824638,67.16436051,70.8426871,78.41450984,85.12699716,81.58698699,74.95556677,70.81509251,61.87605575,51.20988865,41.63754893,35.23968412,31.7353847,28.36409512,26.46712042,27.8612423,31.65790745,36.88646543,34.72874646,39.1341479,47.35547455,56.52069985,61.80722525,65.75110343,47.77872745,32.29189719,37.21132664,58.62965997,68.04317454,66.91719497,64.51237299,65.02277998,58.04002767,47.93152804,37.84069645,30.69362499,26.46652733,23.50506794,21.96601181,22.8239738,26.54119514,31.78910682,28.58585105,32.16285172,36.85493763,45.85593742,56.01097958,61.77591596,66.94422774,69.39771497,57.28810524,49.5021744,48.57088688,50.53204094,53.30807937,54.18083759,46.87865558,38.26501072,30.60431703,25.22155378,23.75148423,22.12564862,20.81137635,22.46053005,26.58280559,30.8816056,29.52232038,33.06426588,34.7739467,41.22331731,48.80737659,50.9891004,51.8393521,53.75436945,56.87321811,64.35595139,67.57362878,64.69454749,59.05044687,57.3397047,49.619514,40.90910064,32.65958627,26.23253484,23.97689239,22.81392236,21.59426471,22.88765371,27.58576425,32.65683929,32.87369437,36.84266988,37.55869433,40.66212247,45.90722472,47.61587544,47.90995802,49.01783245,52.67293466,60.28315264,62.65348139,62.0297616,57.50976753,55.45015933,47.13949349,37.90646782,29.78871467,24.04175851,20.95247106,18.44217139,17.44289618,19.25199884,23.61291798,27.94474415,26.98370811,30.11466843,32.98763147,41.05238043,48.55680861,49.89571002,48.78440188,50.38638872,53.30464566,60.9566926,64.95747686,63.98117639,58.58458457,56.94666852,48.98162231,40.50042544,33.33896354,28.30147653,26.83936697,25.32759332,24.13440654,26.06390794,30.37207265,34.95409218,35.51282102,39.82014288,40.66524402,43.95627818,49.48266461,51.88467722,49.0831356,49.84208156,53.6143985,59.5798954,60.4606448,60.20470775,54.33045416,52.40101519,47.43007994,39.0976256,30.9213119,24.9951155,23.08459321,21.21649298,20.68460962,23.21079805,27.29486566,31.70928842,33.64512659,36.35077375,39.8033801,41.86245764,48.91694349,52.17463934,52.56833103,54.44379817,57.03416597,65.29679092,70.26566597,71.55624551,67.67857576,65.84387631,57.77313392,48.64421242,40.13582669,33.7766693,32.16647272,31.2249777,30.26881129,31.86180806,35.61498982,40.22497857,41.22812453,44.43019408,46.29660866,51.51321105,57.63859448,59.93887531,60.04981571,61.2404116,62.6429617,66.00217083,71.47361773,68.09277615,61.14916826,61.07343911,54.167727,45.34312682,36.83124496,30.69740208,29.06076587,27.06518094,24.83185768,25.86899745,29.69363182,33.54632907,33.07272531,38.46385436,42.14058902,49.335795,57.02742339,62.3350818,67.50358086,70.92294254,70.20198603,74.18497734,68.60362018,63.36291932,64.21117324,64.89426518,55.43654931,44.45220111,35.22064258,26.38976805,21.27330545,18.76977957,17.6474523,19.31474229,23.552703,27.73332059,28.32245343,36.57817973,39.13249347,41.71480764,46.67303813,48.19963922,48.36982689,50.22550331,51.79524441,57.60578686,59.10825824,59.06093532,55.12916884,53.50448822,44.41333764,34.87942437,27.34727672,21.75833413,20.01213099,18.89489187,18.28122352,20.13421538,24.28062062,29.02180874,27.9606017,30.26971655,32.9723358,36.55380031,38.2479982,39.56639093,41.98641494,45.31234819,47.10446955,54.12346322,56.96524184,57.41440373,54.02638256,52.84302873,44.86568355,35.94184881,28.62050042,23.58947504,22.33354481,20.03810241,18.40714743,19.8882361,23.69479662,27.48578054,25.6488023,30.19951255,35.06921549,37.56493747,41.05378515,44.46808989,46.48449564,48.20291684,49.51784465,56.56833491,59.34421728,58.32396518,54.2375252,54.05076198,47.49063829,39.19245871,31.84766736,25.93470639,23.11871191,21.64680064,21.00544401,22.45622229,27.11468897,31.57830756,31.70345107,38.21559635,37.7150535,41.18651408,45.6226317,45.93023067,46.63879455,48.96991643,51.68333633,58.34803244,61.3515393,61.8669408,58.06078609,58.09084675,51.39889936,42.50178524,34.75905686,28.80067712,26.52209117,25.32153749,23.94140021,24.0896433,27.8614608,32.79899532,32.50525611,32.95569787,36.1666951,38.80828778,42.76065657,45.59650421,46.33656471,47.30150268,49.68350607,57.30077879,63.60121955,63.85391019,58.24246113,55.83795126,47.32753654,37.51299463,28.83685605,22.91743343,21.30817333,20.36761475,18.80230627,19.36646661,23.22802909,26.19704266,24.73696211,25.51313911,30.36323861,34.49625233,39.23600454,42.08820916,43.34947727,44.86000229,47.82939045,56.53852397,63.85965387,62.76654444,56.97573029,54.94334213,46.55238966,36.45609534,27.66820476,21.61958059,19.9329369,19.04934688,18.11565575,19.5141166,23.78397971,27.00827483,26.41246183,31.54228471,35.08051554,39.17900477,45.60162356,49.86218441,50.51015876,53.57160186,59.22706498,62.66846489,62.34400948,61.62018111,60.57701672,59.29786207,47.10094218,35.8909361,31.21917157,25.30873907,23.41376217,22.79890763,20.04141127,20.45018013,25.86687479,28.23358251,29.45885896,27.66321025,22.81451545,20.00070607,22.27642018,34.89359627,39.69194024,40.76248076,34.73929736,35.74931073,43.30677427,50.25000758,49.44127267,51.04831646,44.89939645,36.59400607,29.39290032,24.324104,23.0668315,22.38895257,21.75705429,23.20583477,28.02808992,32.69064582,33.58010439,41.40302578,42.36543531,48.53264769,55.95026517,57.21762031,56.84434363,60.11658597,62.38521413,68.74187427,72.08104293,70.50315458,63.5596091,60.38660129,52.36667798,43.83026062,36.40924067,30.61611654,29.04656273,28.03345902,27.12333569,28.40302101,30.73866918,33.09001878,36.11316027,45.99125724,51.11961299,55.17209035,63.51831079,68.84045326,69.19119224,69.49254808,69.38432347,70.44805898,66.70190074,63.2890319,65.13072368,65.1477362,54.90332366,43.05467673,33.01837888,25.45133213,22.07620304,20.49747183,19.45358947,20.95403184,25.24752519,28.8104476,29.85205122,34.45829412,38.10278301,43.5263451,51.27160198,55.35139302,57.69656193,60.72426092,65.4795273,74.61859388,78.39543712,75.89400269,65.8917611,59.98345125,49.61124186,38.90805298,29.81325018,23.17945755,20.73021567,18.79447114,17.50108214,19.1778929,23.50722182,26.78370949,27.29708197,29.08754888,31.80593204,36.1626683,41.78042292,45.90329155,48.08813693,51.83217252,55.03336805,63.58211556,71.87848461,73.35957333,66.8337556,67.12618375,58.34940591,43.9960469,32.5468978,25.39801581,21.98608347,19.57898272,18.60698999,20.00005054,23.94595769,27.16972214,29.35469237,32.11115862,35.809713,39.4340678,45.72355187,48.37553936,50.32308341,54.5264884,60.35463648,68.39150988,75.95836933,77.41944879,68.70856716,65.49803817,56.36178098,45.02791125,34.79592252,27.35807734,24.87587173,22.75951349,20.5474793,21.44299369,25.30989405,28.90066082,32.38142366,42.29186002,46.99256147,49.27102254,56.41288099,59.6459477,61.13896076,65.20857551,69.53319083,77.85618684,83.26545216,82.0865934,76.28154489,73.71121754,62.62829034,51.07971942,40.93831849,33.78615886,31.73794436,30.13327296,29.21575154,30.43653294,35.92580397,41.001218,43.45461157,53.88894008,61.47871183,66.37847541,69.32726128,73.0461058,73.92860331,72.816265,71.72465396,70.56908198,59.31362595,54.24205146,52.902276,56.0862093,50.687807,40.39600911,31.03752774,25.78883568,24.56870979,24.45215058,23.0141395,22.88962029,25.90224211,28.55991086,31.73666454,36.89083563,38.25914216,44.68219799,56.38703445,59.35105352,60.11692935,63.16544916,66.83113349,75.08180282,78.10588078,76.21761525,68.48069301,62.26319219,54.19984791,46.04941199,37.47731516,32.98098253,31.11369392,29.32353916,27.48559325,28.345116,31.38673716,32.95345035,37.68508648,48.82285955,51.38763053,51.78303908,56.77045621,60.80248731,61.16231006,61.46301034,65.02580789,72.58820349,77.48381543,76.58455514,68.28774908,63.72520809,54.97955227,47.03604486,39.07121715,33.78793816,32.86042772,30.81667706,28.67575211,29.28152288,33.32207589,36.9588545,40.75889097,48.54248062,49.78611188,52.37220316,60.40114778,59.88206283,58.29231251,62.04043734,67.34612916,73.70041691,76.16848181,77.00596634,70.14173985,66.56249165,57.93273951,47.91804289,39.04090677,32.76518879,30.76311102,28.74926494,26.03287959,25.83053978,29.06850734,32.83611072,40.25806717,47.85217786,52.33274658,54.46705383,57.96523499,59.62234869,60.90094146,62.77640859,68.49580133,76.57587722,83.29151723,80.77940706,74.36237589,73.12330213,64.70818872,54.59510039,46.47138507,40.21695615,37.94383294,36.60599287,35.58399267,37.12479687,40.93560272,43.81652575,47.892727,48.71173185,53.97147425,55.94033857,62.80085044,67.05994418,67.98670541,68.20187483,71.02248923,77.0174225,80.8643136,82.61616681,78.14458818,75.53052773,67.17628483,57.70623878,49.19644837,42.97360969,41.1159667,39.31685305,36.39104193,37.20948491,42.01703751,45.60493242,51.0603345,55.10578833,61.10465477,65.23223697,69.20127493,70.54460897,71.66531302,74.22537045,76.96076607,86.4210417,91.84485352,91.72464203,81.91481366,78.01963194,69.09077149,58.94356451,50.82225278,44.69995968,42.34339707,41.38104996,40.60093981,42.3703986,47.06947681,50.60639658,55.51755389,60.75641303,64.14427811,66.92980613,69.51368104,70.0895473,70.00357941,73.43595801,77.50813245,84.24222089,88.22674179,87.93340841,78.80795186,75.19121367,67.18305864,57.87867401,49.46415374,43.29319546,41.31671452,39.820736,38.92700088,40.68185074,45.55745345,49.50563932,53.04440082,61.20201636,64.40299338,66.7281531,69.55647773,68.01342601,69.59512271,71.26188202,72.78433142,81.31669074,84.21081795,80.82217251,74.05137443,73.55632554,65.28645853,56.44968425,48.90536249,43.71242156,42.29254677,40.82993778,38.42027732,38.3318434,42.42736714,46.39422,53.90935512,61.49172873,64.82861868,65.47827867,67.51072926,68.86224181,69.40202273,73.66305181,76.45088975,82.34718161,88.5703012,86.47953976,78.74595757,76.79803898,67.66771272,57.88919367,49.62301016,42.975389,40.1374187,38.8946927,37.21429212,38.14280145,41.85134486,44.73816764,54.06668198,63.24667227,65.75035425,68.82687446,70.31533005,70.03217294,72.5774341,75.85417153,79.82018153,87.64176068,90.69649234,90.18533619,80.47789516,77.95023961,69.75101359,59.47657162,50.42528342,44.31994043,42.44150783,41.49873294,39.46275498,40.31210145,45.44282959,49.16623163,53.48323037,56.90817964,53.58596106,51.38709986,66.46110319,69.08296763,72.64654556,75.43076251,66.24824378,61.05499066,64.62131558,67.83571535,68.5482124,70.74813493,64.38445128,55.50394387,47.60086073,42.19215727,41.13482097,39.19586123,37.32448335,37.28939697,41.33013725,46.55413773,48.80231966,51.26529642,60.63929193,67.11741212,70.64268848,71.16717372,57.39835889,54.61055213,50.77820751,44.28120181,52.95084756,57.67642784,56.36171856,59.66489561,53.53879422,47.2470626,42.76277925,37.69526276,35.59395047,34.20373055,34.00501175,36.91590179,41.54677383,45.30126665,49.80349902,50.75451483,61.54685557,66.34941364,70.28648681,58.46683917,56.52869103,71.22701414,72.07380088,68.69077425,57.90083712,53.50380147,52.66035477,56.49235604,50.99780955,41.90041585,34.2030438,29.55934212,27.91524537,27.72045974,27.72551667,29.5441089,34.65017669,36.96153906,49.26243824,64.98563337,60.70256603,61.04153672,68.73004353,74.2526841,73.59372182,60.0815308,51.6048602,52.143611,50.19887636,57.99120639,63.41011737,64.29548669,58.34687746,50.19406914,42.58322686,37.09829479,32.54627347,27.76949952,24.57382916,24.7207612,29.3094921,33.22817922,43.05733005,56.13637284,63.81501549,67.85513149,72.95042987,74.46919581,76.49980465,80.98549279,87.31281018,73.40733323,56.81250367,61.47771291,58.14378848,60.61375753,53.21552499,43.88132942,35.71537932,29.6805837,27.86289673,26.85731596,26.09852609,26.96707017,30.2055684,32.37209018,42.70893225,57.98561879,65.88430052,66.71079713,56.62012167,34.50421233,22.75405075,26.69321532,32.91692804,37.12554605,47.70490247,61.68192566,58.41508365,60.76727606,54.33638514,40.01742575,25.53592653,19.61035444,17.74718628,17.16192417,16.97413085,18.95982041,23.62905647,26.33691997,26.18989428,26.2402139,23.96209618,29.18363065,40.75093097,45.13941353,51.23551668,49.84863684,44.56214262,55.41067153,59.59874965,58.86462012,52.74722791,54.08288288,46.77620582,38.31367591,30.7042071,24.78325492,21.30714321,18.97957991,18.00387253,19.80292374,24.18853446,26.9924797,31.85824947,38.89369378,47.09869466,51.3668721,54.80705462,58.4229812,59.25319247,60.74885885,63.6831294,72.64226904,79.89369439,80.71182518,72.60262511,70.8361943,62.55046975,52.91014234,48.31819621,40.16242243,34.6729641,34.49743854,32.02041473,31.15979942,36.15976523,40.04370933,44.5359527,47.47958793,50.40027969,52.59433368,55.84175958,56.50796385,57.77803476,60.37386532,62.44096527,72.70953874,79.98618633,78.52613698,68.62409768,67.5402905,59.98532418,50.95760381,42.81778121,36.72782752,32.95772689,29.90983139,28.46261169,29.10187686,33.0858359,36.31022464,41.39153841,47.68926343,50.45949576,50.84747501,53.96008055,56.53658861,55.48231143,56.38584824,60.24581874,68.47036061,75.36801904,73.72342287,69.36912143,69.11858468,60.53450101,51.45752236,43.81608872,39.22807576,36.71065892,34.57432267,32.70016659,33.50484349,38.03657463,42.50621786,49.69521194,58.22569833,58.64401917,61.02321314,64.41476168,64.79378202,63.0493894,63.70301377,64.20480525,70.95749824,73.68509006,70.69278963,65.42730353,66.97260275,58.861561,49.8934937,42.39349816,36.67126478,35.10567535,34.33402463,33.3133043,34.93014979,39.77116555,43.68504546,48.29400411,53.97912209,58.23443871,59.41838566,60.45109282,62.38958431,63.92679872,64.41632245,66.79573491,75.49253828,80.46653265,77.83255659,70.89459878,71.8394651,62.69118988,52.89209972,44.69946023,38.85738998,36.53400959,34.71145298,33.56699383,34.97819068,39.42557714,42.51164938,44.7858027,52.18384797,57.40485174,58.85594219,58.44848439,50.79531366,46.30793995,58.27789089,62.66762205,71.04621313,75.90573979,74.92597435,68.09889443,69.00105778,61.01247495,52.07958769,43.40185713,37.32148665,34.86515883,33.02427865,31.03621668,31.7126597,36.02965842,39.18524791,42.02187594,48.59236323,51.39918032,51.33481366,53.10052655,54.18573843,54.29468103,55.53896783,59.50166898,69.34664618,72.51475311,72.27629679,65.64771721,65.28620881,56.36830505,47.23838466,39.50567649,33.97957098,31.53248301,28.94105387,28.12573244,29.71773032,33.69891113,37.13559749,43.08489347,46.3946258,48.10205909,47.29082694,49.32327753,52.45105388,55.01673009,56.45464752,57.92783866,66.90736211,75.86628315,77.99394146,69.83866713,68.34493614,59.9508309,50.80386675,42.75853391,37.14661661,34.51832181,32.58298307,31.93120043,33.87712125,38.80007807,42.51889142,44.75527382,45.91643335,49.7194977,52.10568397,53.74238263,54.88237797,56.64977653,60.62259158,62.69693357,67.71522293,68.49645685,64.70971828,61.70524374,65.48171238,59.05278803,49.47751402,40.73357508,36.3793673,34.97101107,33.90902364,33.12007944,33.8161571,38.13524728,43.23522801,47.28664406,56.10696769,58.08260582,61.26650788,55.67044812,42.37370744,38.96723786,40.97705711,43.89422147,46.73340919,53.44714507,54.84591809,56.7333096,58.961732,49.24795418,39.63759379,32.43193057,28.39871325,27.16216794,26.1430396,25.55069153,27.51287571,32.7195203,36.51371942,39.21680692,47.31323977,51.81328703,55.07070195,60.51402354,64.32829434,67.16264363,70.78322134,76.75402488,87.80217784,93.95581145,93.15091603,85.58202758,82.94886311,68.93194632,53.90208188,42.21307175,34.07365495,31.45232123,29.60398051,27.333854,27.99278501,32.43380351,35.86593237,41.02188276,51.05084494,56.74208119,61.14548483,65.47328416,68.28138109,69.99140531,72.1590196,74.22796133,81.83652488,85.03765797,85.45354401,77.60349621,76.79875691,67.28535233,55.73113132,44.60125583,35.24158827,31.86645919,29.94516748,28.18026619,28.77479934,31.05828616,32.85877329,38.00301782,48.09353724,54.01264769,57.97082259,62.05233051,63.32343153,65.35091884,70.37454611,76.40222454,87.74658277,91.98207743,85.76357777,76.22738576,76.01655528,67.54035291,57.7451647,47.96034007,40.6085252,37.83248674,35.31653703,31.8918375,30.96801052,33.97732346,36.38158361,40.64411103,49.0290701,57.69500116,65.42106039,68.74187427,70.45405238,70.46700688,71.59976014,76.77003849,87.77586307,92.05118888,90.49471443,83.0077983,81.69265197,72.02376221,59.52629815,48.25011489,39.62070614,35.21380635,32.07972445,30.03519341,31.35208779,35.85638039,37.52008058,42.51395933,49.51572197,54.1718787,60.71836116,67.21405576,72.09346679,74.64238018,72.69034113,66.68697965,59.39940654,60.69157815,69.73606133,64.74396185,66.33430532,59.1897935,50.5579499,42.70805821,36.369628,31.25856573,26.80009768,24.57301756,25.94457053,30.76604528,34.14532606,34.92549866,37.84640892,40.2226062,43.72874735,51.57426887,56.63220213,57.93149087,56.42468052,63.24717171,77.89826553,86.52698755,87.36238061,78.2966396,73.71930241,64.35729366,53.58514943,42.40916841,35.0610682,31.1639511,28.92004574,28.04522732,29.88560804,34.79426808,38.37682514,44.31566388,58.06446951,66.01503169,70.19137269,73.28655994,61.19998734,54.49205756,66.04927521,77.99840534,77.0266623,71.85816323,81.26624625,75.97469513,77.72236539,69.99680559,54.97652436,41.00505754,34.55815296,31.87082937,29.18690828,27.59690821,29.13793092,33.77847981,36.86564459,39.47087104,50.94596036,60.83929058,67.01955107,71.37066851,71.68163874,70.09132659,70.4687237,71.76557765,81.59603957,88.22518103,84.55253559,75.78056502,75.08080394,62.77016545,51.26810582,41.89432881,34.98558877,32.08905793,29.3908713,27.64398142,28.88564611,32.55413981,35.27377161,40.76051417,51.58719213,58.53373431,64.13519435,68.68128474,69.53543835,68.64716604,70.59598987,76.56588818,85.74728321,85.6340016,84.24056648,76.58255732,76.02520203,66.19979704,54.8752296,45.86617615,39.04674409,35.67973106,33.80307774,32.81279264,34.43441416,39.20316569,42.9305321,42.32391849,41.82393752,48.60022957,55.10126207,63.23250037,66.16889357,67.93516839,70.97007816,74.04594291,83.73275039,86.88515588,86.37896295,77.19447763,75.91600971,67.5661058,57.53108781,47.94176678,40.29536986,38.03095582,34.6160892,31.05507093,34.08904427,39.82207827,43.92805925,47.04953001,56.88142782,63.07757712,66.89859048,71.66047455,72.89720721,72.73856927,64.58070405,59.98741563,78.77589339,82.17524582,82.86960662,76.95580279,76.79254498,66.59801505,55.96459313,48.15612459,42.58488129,40.40140941,39.9462541,39.81620971,41.63826686,42.26754305,41.53591076,42.22992819,39.63372307,50.04748048,60.50606357,55.01822844,47.89044826,60.01216964,60.7130233,61.82192783,70.46110706,79.75303665,77.13535522,71.21587016,72.90351272,63.85097591,54.2459222,45.62971765,39.84342975,38.20442115,37.83545223,37.68424364,37.8192513,41.95295178,44.62323164,45.39791028,54.02841158,61.46213632,63.17347158,68.1606702,68.84245108,68.57924076,71.74641128,75.20376235,85.46222193,93.00005085,89.51629129,81.22241951,79.45567645,69.72423058,58.51843864,49.30167632,42.73156359,40.19891353,38.50693195,35.69880381,34.98159318,37.9934346,40.52084046,46.1062869,58.59554127,66.83590948,70.73230861,72.91556199,74.79580513,72.50270383,74.50091093,78.70256783,89.53923477,95.89164959,95.90154499,85.33773393,80.6473649,70.59343023,58.88977994,49.02541786,42.81306763,40.78423805,39.68897475,38.76670854,39.52640367,42.73003403,43.91379368,49.19969481,59.1379131,66.71900688,70.41250433,72.47373578,74.7204505,76.38986316,78.2417937,83.19115895,93.03154744,97.84528071,97.19743123,87.79808861,83.99983141,75.08495558,65.08402509,55.65443449,46.14196637,42.17214803,40.53117282,39.39536039,41.02906235,46.04472965,50.18545363,58.20035122,66.79492332,68.29386736,72.7053558,76.96291995,76.94531434,76.20107093,79.79873639,80.88981679,87.02291049,91.77780229,88.95322354,80.4293236,77.26658573,65.82427287,54.02235576,45.39541304,39.62763601,37.56965103,36.37068934,35.89614911,37.69888379,43.69606458,49.61854632,54.78926171,63.337104,69.43401872,71.01078338,73.80520783,80.221802,74.29226556,64.88524387,81.90326393,90.79285504,93.18490991,90.94721646,83.97673187,84.51585726,78.44360285,68.89948209,59.18642221,52.44886878,48.36233514,42.85605159,38.37844836,39.04268605,43.68083134,45.97377648,50.45843444,62.54990787,71.36601741,75.39152447,80.6029138,70.50374769,47.77176637,38.69013658,40.76241831,49.81838886,59.28266004,67.18995728,61.40073516,63.20933834,57.9758171,49.13067702,41.35036497,36.60499398,34.58499841,32.22275453,30.91837762,32.68949085,37.90284682,42.09916586,45.21670346,50.47744477,60.34948589,67.13888849,73.44404288,76.50598541,76.55449449,80.06672271,72.2325637,58.80824468,57.91223083,60.06532988,58.59791367,61.53552429,54.69964159,46.20008991,39.41405858,34.79289461,34.26254081,33.97164222,33.40020865,35.10302203,39.14597862,42.07778313,46.63223927,55.44647588,66.08882543,72.76803686,77.13897621,78.37464751,58.7173135,43.43653771,48.60659756,68.70513346,67.68388246,60.51127659,57.40310368,63.23955509,58.31672314,50.01826263,42.25212251,36.1838637,34.44755593,33.39546386,32.62543636,34.83132106,40.57852696,44.91278794,50.94758358,63.57365613,70.52069778,75.95240717,83.31954888,84.32743961,85.22588826,87.51290244,90.68409978,99.54338054,97.36343603,83.59243607,72.90975589,81.07033686,77.54193897,69.26458022,60.14830106,52.27540345,48.11195445,44.80081743,40.80777467,40.65132186,45.34306439,49.17406675,54.95919967,66.33027844,74.87915085,78.02459523,81.90279569,84.3904952,86.19607054,86.61876156,91.37683734,101.5389342,105.0,104.9338852,98.87012153,96.58794574,86.01121148,74.32017233,63.89333554,55.3928786,51.15323225,47.50162617,45.49136991,46.16768806,50.05706367,52.73208833,57.99891668,68.42169541,75.55949586,80.31082907,84.71722941,85.74915615,86.82050829,89.2526752,93.77394908,101.2172882,103.0802066,98.43207242,81.89252571,68.95941609,62.43057046,54.45472363,46.8246213,41.65193933,41.12960796,41.42272284,40.77562254,39.75718094,42.56936712,45.39737961,48.59242566,59.88836839,67.91818707,72.36039175,79.01469306,82.23187101,67.88665925,50.48212712,51.0302426,72.52714573,76.32075176,78.02287841,73.83707901,72.66955146,64.78204493,52.97388469,43.32247574,39.35718368,37.69507547,36.66982885,34.51554362,35.02501414,39.49643665,42.04953299,46.72941357,62.094815,69.95613161,70.37092506,65.58834503,63.40109606,70.42233726,67.81826579,71.81377462,74.35372914,71.02248923,70.62726799,67.92162077,71.60815712,65.07622118,54.52502126,46.2742895,41.15617246,40.58336538,40.57409436,40.07732859,40.50832299,44.20709588,46.86410909,51.3458952,47.60014277,38.12191819,39.75327899,53.33158475,60.10906301,67.29811948,71.63234925,74.91080349,83.4817454,90.06094184,88.89659835,79.58993497,77.78851133,68.1622622,55.87328738,46.75588444,39.81599121,37.13409914,34.34541834,31.28519265,32.18245514,36.90450808,41.50282219,46.65836676,53.85238656,61.74189092,64.99428009,69.42964855,69.47946876,68.91508988,72.87616783,77.53563339,88.0126025,96.31424696,94.17191733,84.97856673,80.29856126,70.84942974,60.66207935,51.80233036,46.06798529,42.21628695,38.36402674,36.42531672,37.33344224,41.92310963,46.59743385,55.43598743,66.40625736,71.2027596,74.42202895,77.38648503,77.34812105,77.15324177,80.04524633,85.92062364,97.01709846,100.335259,94.60010234,83.47853017,82.18860615,74.04675449,64.41057877,54.82132016,47.95628205,44.8959315,41.65506088,40.72358606,40.1595506,42.56097009,45.90594488,53.11969296,62.76173723,68.94533783,73.54471327,79.37389149,80.42514073,79.6980347,82.69795177,85.72427725,91.4860609,97.36078268,97.76358939,89.58811851,86.89423962,77.07735656,65.79318211,56.39149829,48.56308296,44.40259945,42.01516457,39.80206902,40.47392333,45.30345173,47.64219023,50.40739686,67.82066937,75.9798457,77.91612091,81.9342298,75.08732798,57.96155153,58.37859255,51.01931714,54.24086527,62.02782621,58.14953214,59.46146325,61.6891989,54.99200732,46.58532218,39.48273299,34.14182993,33.14358482,30.86705911,28.55891194,30.1570905,34.97219728,38.65352061,46.58054617,57.11975926,65.58556683,68.99253592,73.86330013,58.77646714,44.65129449,43.18378462,54.93172991,67.85581819,72.57256447,74.78775143,70.07150463,66.95914883,58.55421177,47.22533652,37.0803458,31.53061007,30.91094832,30.25423359,29.18803204,30.85691403,34.82354836,38.65779716,43.84827206,55.33978081,62.91035491,66.77188619,73.03745905,74.11742671,54.52508371,38.51395548,44.82859936,71.88962865,79.09600978,79.55597232,76.03153878,73.00393347,60.83897841,50.36013638,41.50101168,35.0642522,33.48773731,30.94185179,28.2922679,29.05514706,32.63442646,35.35508836,40.52855071,50.07935166,58.69636781,63.03940038,68.38245737,71.55321764,71.85963041,76.33879437,81.87220433,80.49868477,78.02596876,67.22910173,59.55020933,64.30425829,56.66628959,46.93852719,38.82327131,32.80739233,30.8291009,29.72681405,27.91568238,30.30408497,34.78877414,36.93769031,42.98450397,51.10309992,59.55230077,46.6061742,44.16077187,60.75703736,58.24011995,59.32726719,65.3927478,82.08016294,95.46003088,97.48061951,81.3638576,73.56303688,67.90588809,58.60862062,50.14418656,43.33795869,39.64452369,36.30707186,34.54316946,34.8902562,38.6696279,42.4574278,51.72987884,64.49258227,68.96884326,71.94581678,74.64375371,76.3881151,81.6010965,86.59160396,87.99805599,96.92966345,93.04943399,70.99633052,59.31880776,64.77552086,60.99068645,53.96448196,46.93684154,40.27080314,37.7467686,36.44364029,34.79099046,34.84324544,38.43950618,42.82752049,53.94019617,68.15742373,71.97525313,76.21383814,82.1672546,84.40138947,84.19199493,77.38411268,59.89436179,57.49987218,74.01934719,92.79783588,85.62260792,83.18145091,74.3121811,63.39838029,53.78215138,45.56759852,41.98298123,40.83986435,38.33440309,39.1634906,44.08226453,48.65785365,53.64548928,66.56757975,71.10542919,77.0481075,80.74544441,81.70076801,82.1891992,85.1009945,87.84122865,95.69870573,101.2339574,100.0276288,91.24526342,86.57128253,77.78464063,66.5448548,56.05003037,48.19892125,44.10093148,42.07522347,41.71206065,44.51553766,50.23483679,56.62009046,63.15748916,72.06989895,75.41730853,76.60849757,80.39233309,83.52588431,82.68674538,83.06673342,88.08817559,97.54626604,100.7569199,99.17569148,90.99747359,86.13229695,76.23603251,65.73995938,58.86786657,54.12105962,52.1474505,49.60824516,47.25920548,48.73807785,53.17029354,57.80906313,63.66980033,72.97484047,74.08115413,76.06940335,77.47401375,78.53309809,78.29629618,80.51085886,82.89523463,90.11372751,93.98115851,94.64961037,86.84635483,84.71214124,77.05525583,67.92059065,53.0223938,45.33338754,45.8610568,45.09883319,41.80776781,42.57813872,47.67749514,51.92347826,55.86033288,58.67717019,61.63503977,65.02281119,70.54904154,59.81263924,53.2390928,67.24118218,72.95033622,82.10716448,87.62574699,86.71883889,79.9829711,78.7761431,71.64280653,61.39202598,48.77878304,41.00799179,41.08634308,40.59541463,38.56112232,37.84531637,42.10206893,46.96184527,51.93303027,49.22738307,45.41807558,40.34734392,31.17312852,32.75710394,43.96255253,58.15764822,58.97602877,69.26323793,74.41194633,73.77033996,70.35475538,73.62961988,67.46646546,54.43565088,44.20793871,39.89115848,38.41309773,36.33151371,36.64903925,40.55402269,41.90825097,44.28700794,49.56198356,57.72490574,65.77610714,64.470107,67.75268174,69.80604678,74.80142394,76.91166387,76.92074762,81.69886384,85.04995695,84.52615841,79.25396095,80.2467433,73.99952523,64.7831687,56.39664886,49.15327715,46.25275069,43.57685202,41.55972831,43.16483674,48.2353499,52.43513389,53.26615678,63.83112278,66.39586255,69.22056619,76.62913112,74.56892979,75.41989947,76.18477637,78.50534738,87.97130423,91.31687211,90.78901552,83.18273073,80.74179225,73.0363977,64.13038716,56.13887008,48.85557353,45.8537211,43.96539315,40.44386267,40.96569461,46.02562566,51.22933599,58.98352052,69.13750134,71.1435123,71.33920316,74.24132159,75.57797546,75.76442652,75.43613162,79.49113745,89.33695746,93.89119504,94.77943624,86.6057134,82.86014828,73.19949945,63.62431913,55.63904519,50.06792674,46.99655706,43.33836449,40.82862672,42.95013552,46.87275582,50.73775203,56.98312838,66.67040415,67.4828849,68.78900989,75.7721368,77.11846754,78.70166259,78.26773388,80.73654803,88.83301206,93.93539636,92.71817356,83.19134624,80.34719529,70.57907102,60.5486417,51.76655723,45.95283079,43.88092362,42.12151626,41.29564396,43.18306668,46.83710756,50.08862271,54.16457424,61.40981889,64.53503556,70.32004363,76.7267424,77.53894227,76.49427949,78.11911623,81.51647083,90.01474269,93.7175736,91.24314071,82.93821861,80.87255453,71.77478628,62.40965598,53.61795708,47.55828257,44.55249698,39.73086616,39.0493662,43.27780616,48.48407616,50.65777755,50.08231715,54.725613,66.46182119,71.90660991,74.98238101,78.29632742,77.68053641,76.69387235,80.95565061,89.2763991,92.86189041,89.24290469,81.69995643,82.80227445,73.37077972,62.55274848,55.03764457,45.65028875,40.34927928,36.66957914,35.97890179,39.05323695,42.01959717,46.48462051,50.28584313,58.64979406,67.23546972,72.84960336,77.88337568,79.60548035,72.1675103,51.76908568,46.50269437,66.44914763,78.06121122,78.14340201,64.56940397,63.26602595,57.27902148,48.37304212,42.19081498,36.28309823,33.13603065,31.90316876,31.04567503,31.81273704,36.05756522,41.58879008,45.02928473,57.89652936,65.82264964,68.03000151,73.68412236,76.88531786,78.37221269,83.01479058,64.99065909,51.42830451,61.31707722,74.34192964,59.71399781,57.08183226,52.98596515,45.30972608,38.32054335,33.06657582,31.6594058,31.07573569,30.95418197,33.22880353,37.25084564,41.67285381,47.44565653,59.07067459,65.24903099,69.7363735,75.34754161,65.482524,60.79749283,71.42223677,62.21099963,49.01062165,51.76774341,59.30504165,63.04470706,67.9541163,60.94888868,52.01996583,43.1759495,36.98557511,34.37348121,32.0726385,30.93782499,32.49021019,36.44729253,40.72215016,46.13335086,59.544
...